Version 4.1
SHEET 1 1468 680
WIRE 416 -224 128 -224
WIRE 128 -192 128 -224
WIRE 128 -48 128 -112
WIRE 416 -48 416 -224
WIRE 752 0 544 0
WIRE 944 32 944 16
WIRE 944 32 608 32
WIRE 1136 32 944 32
WIRE 1264 64 1104 64
WIRE 608 80 608 32
WIRE 544 96 544 0
WIRE 592 96 544 96
WIRE 720 112 656 112
WIRE 1136 112 1136 32
WIRE 416 128 416 32
WIRE 592 128 416 128
WIRE 720 128 720 112
WIRE 752 128 752 0
WIRE 752 128 720 128
WIRE 800 128 752 128
WIRE 1104 128 1104 64
WIRE 1120 128 1104 128
WIRE 1264 144 1264 64
WIRE 1264 144 1184 144
WIRE 1392 144 1344 144
WIRE 800 160 800 128
WIRE 832 160 800 160
WIRE 976 160 912 160
WIRE 992 160 976 160
WIRE 1088 160 1072 160
WIRE 1120 160 1088 160
WIRE 416 176 416 128
WIRE 1392 192 1392 144
WIRE 608 224 608 144
WIRE 816 224 608 224
WIRE 1136 224 1136 176
WIRE 1136 224 816 224
WIRE 976 240 976 160
WIRE 1184 240 976 240
WIRE 1264 240 1264 144
WIRE 1264 240 1248 240
WIRE 416 272 416 256
WIRE 1088 272 1088 160
FLAG 128 272 0
FLAG 416 272 0
FLAG 944 -64 0
FLAG 816 304 0
FLAG 1392 256 0
FLAG 1088 336 0
SYMBOL voltage 128 176 R0
WINDOW 123 0 0 Left 0
WINDOW 39 0 0 Left 0
SYMATTR InstName V1
SYMATTR Value SINE(0 25 45k)
SYMBOL res 400 -64 R0
SYMATTR InstName R1
SYMATTR Value 40k
SYMATTR SpiceLine tol=1
SYMBOL res 400 160 R0
SYMATTR InstName R2
SYMATTR Value 10k
SYMATTR SpiceLine tol=1
SYMBOL voltage 944 32 R180
WINDOW 0 24 96 Left 2
WINDOW 3 24 16 Left 2
WINDOW 123 0 0 Left 0
WINDOW 39 0 0 Left 0
SYMATTR InstName V2
SYMATTR Value 12
SYMBOL OpAmps\\ADA4898 1152 160 R0
SYMATTR InstName U2
SYMBOL voltage 816 208 R0
WINDOW 123 0 0 Left 0
WINDOW 39 0 0 Left 0
SYMATTR InstName V3
SYMATTR Value -12
SYMBOL OpAmps\\ADA4898 624 128 R0
SYMATTR InstName U1
SYMBOL voltage 128 96 R0
WINDOW 123 0 0 Left 0
WINDOW 39 0 0 Left 0
SYMATTR InstName V4
SYMATTR Value SINE(0 3 200k)
SYMBOL voltage 128 16 R0
WINDOW 123 0 0 Left 0
WINDOW 39 0 0 Left 0
SYMATTR InstName V5
SYMATTR Value SINE(0 5 30k)
SYMBOL voltage 128 -64 R0
WINDOW 123 0 0 Left 0
WINDOW 39 0 0 Left 0
SYMATTR InstName V6
SYMATTR Value SINE(0 6 2k)
SYMBOL res 928 144 R90
WINDOW 0 0 56 VBottom 2
WINDOW 3 32 56 VTop 2
SYMATTR InstName R3
SYMATTR Value 1k
SYMBOL res 1088 144 R90
WINDOW 0 0 56 VBottom 2
WINDOW 3 32 56 VTop 2
SYMATTR InstName R4
SYMATTR Value 1k
SYMBOL res 1360 128 R90
WINDOW 0 0 56 VBottom 2
WINDOW 3 32 56 VTop 2
SYMATTR InstName R5
SYMATTR Value 1k
SYMBOL cap 1376 192 R0
SYMATTR InstName C1
SYMATTR Value 3.18n
SYMBOL cap 1248 224 R90
WINDOW 0 0 32 VBottom 2
WINDOW 3 32 32 VTop 2
SYMATTR InstName C2
SYMATTR Value 4.5n
SYMBOL cap 1072 272 R0
SYMATTR InstName C3
SYMATTR Value 1.5n
SYMBOL voltage 128 -208 R0
WINDOW 123 0 0 Left 0
WINDOW 39 0 0 Left 0
SYMATTR InstName V7
SYMATTR Value 4
TEXT 88 296 Left 2 !.tran 0 0.0005 0 0.000001
